
     RDKit          3D

 31 34  0  0  0  0  0  0  0  0999 V2000
   47.3017   34.1291   17.4726 C   0  0  0  0  0  0  0  0  0  0  0  0
   47.3746   33.9873   16.0360 N   0  0  0  0  0  0  0  0  0  0  0  0
   48.6522   33.9946   15.3188 C   0  0  0  0  0  0  0  0  0  0  0  0
   48.4275   34.5609   13.9640 C   0  0  0  0  0  0  0  0  0  0  0  0
   49.0836   35.5065   13.4578 O   0  0  0  0  0  0  0  0  0  0  0  0
   47.3963   33.9764   13.2154 N   0  0  0  0  0  0  0  0  0  0  0  0
   47.2595   34.0017   11.7704 C   0  0  2  0  0  0  0  0  0  0  0  0
   48.4543   34.0624   10.9902 C   0  0  0  0  0  0  0  0  0  0  0  0
   48.9898   32.9494   10.4040 C   0  0  0  0  0  0  0  0  0  0  0  0
   50.1396   33.0739    9.6428 C   0  0  0  0  0  0  0  0  0  0  0  0
   50.7687   34.2792    9.4532 C   0  0  0  0  0  0  0  0  0  0  0  0
   50.2262   35.4058   10.0492 C   0  0  0  0  0  0  0  0  0  0  0  0
   49.0839   35.3001   10.8084 C   0  0  0  0  0  0  0  0  0  0  0  0
   51.0583   36.4493    9.6894 O   0  0  0  0  0  0  0  0  0  0  0  0
   52.1344   35.9977    8.9116 C   0  0  0  0  0  0  0  0  0  0  0  0
   51.9206   34.6258    8.7345 O   0  0  0  0  0  0  0  0  0  0  0  0
   46.2491   35.0947   11.5947 C   0  0  0  0  0  0  0  0  0  0  0  0
   46.0621   36.2517   10.9984 N   0  0  0  0  0  0  0  0  0  0  0  0
   44.8198   36.7502   11.3113 C   0  0  0  0  0  0  0  0  0  0  0  0
   44.2399   37.9187   10.8993 C   0  0  0  0  0  0  0  0  0  0  0  0
   42.9599   38.2083   11.3552 C   0  0  0  0  0  0  0  0  0  0  0  0
   42.3217   37.3119   12.2032 C   0  0  0  0  0  0  0  0  0  0  0  0
   42.9363   36.1434   12.5981 C   0  0  0  0  0  0  0  0  0  0  0  0
   44.2066   35.8427   12.1535 C   0  0  0  0  0  0  0  0  0  0  0  0
   45.0758   34.8009   12.3479 C   0  0  0  0  0  0  0  0  0  0  0  0
   45.0054   33.5557   13.1506 C   0  0  0  0  0  0  0  0  0  0  0  0
   46.3022   33.2930   13.9163 C   0  0  2  0  0  0  0  0  0  0  0  0
   46.1503   33.8341   15.2887 C   0  0  0  0  0  0  0  0  0  0  0  0
   45.0329   34.1440   15.7830 O   0  0  0  0  0  0  0  0  0  0  0  0
   46.5216   37.8889   19.0427 Mg  0  0  0  0  0 15  0  0  0  0  0  0
   46.1714   37.4979   18.4219 Zn  0  0  0  0  0 15  0  0  0  0  0  0
  1  2  1  0
  2  3  1  0
  3  4  1  0
  4  5  2  0
  4  6  1  0
  6  7  1  0
  7  8  1  6
  8  9  2  0
  9 10  1  0
 10 11  2  0
 11 12  1  0
 12 13  2  0
 12 14  1  0
 14 15  1  0
 15 16  1  0
  7 17  1  0
 17 18  1  0
 18 19  1  0
 19 20  2  0
 20 21  1  0
 21 22  2  0
 22 23  1  0
 23 24  2  0
 24 25  1  0
 25 26  1  0
 27 26  1  6
 27 28  1  0
 28 29  2  0
 28  2  1  0
 27  6  1  0
 13  8  1  0
 25 17  2  0
 16 11  1  0
 24 19  1  0
M  CHG  2  30   2  31   2
M  END
$$$$
