
     RDKit          3D

 77 79  0  0  0  0  0  0  0  0999 V2000
  -35.0900   -7.0635   21.2907 N   0  0  0  0  0  0  0  0  0  0  0  0
  -34.8354   -5.7200   20.9175 C   0  0  0  0  0  0  0  0  0  0  0  0
  -35.3474   -4.6615   21.5815 N   0  0  0  0  0  0  0  0  0  0  0  0
  -35.0960   -3.3834   21.2142 C   0  0  0  0  0  0  0  0  0  0  0  0
  -34.3161   -3.1694   20.1608 N   0  0  0  0  0  0  0  0  0  0  0  0
  -33.7511   -4.1565   19.4240 C   0  0  0  0  0  0  0  0  0  0  0  0
  -34.0248   -5.4539   19.8218 C   0  0  0  0  0  0  0  0  0  0  0  0
  -33.3756   -6.2445   18.9674 N   0  0  0  0  0  0  0  0  0  0  0  0
  -32.7251   -5.4668   18.0750 C   0  0  0  0  0  0  0  0  0  0  0  0
  -32.9477   -4.1703   18.3444 N   0  0  0  0  0  0  0  0  0  0  0  0
  -32.4787   -2.9940   17.6870 C   0  0  2  0  0  0  0  0  0  0  0  0
  -32.0675   -3.2135   16.3758 O   0  0  0  0  0  0  0  0  0  0  0  0
  -31.6047   -1.9286   16.0298 C   0  0  2  0  0  0  0  0  0  0  0  0
  -30.7519   -1.9811   14.7814 C   0  0  0  0  0  0  0  0  0  0  0  0
  -31.1674   -3.0660   14.0387 O   0  0  0  0  0  0  0  0  0  0  0  0
  -29.9121   -4.1499   13.7199 P   0  0  1  0  0  5  0  0  0  0  0  0
  -30.5004   -5.5091   13.4205 O   0  0  0  0  0  0  0  0  0  0  0  0
  -28.9730   -3.5920   12.4240 O   0  0  0  0  0  0  0  0  0  0  0  0
  -28.8969   -4.3133   15.0628 O   0  0  0  0  0  0  0  0  0  0  0  0
  -27.3168   -3.9617   14.5720 P   0  0  2  0  0  5  0  0  0  0  0  0
  -26.4449   -3.5084   15.6941 O   0  0  0  0  0  0  0  0  0  0  0  0
  -27.4122   -2.7658   13.3638 O   0  0  0  0  0  0  0  0  0  0  0  0
  -26.6612   -5.4232   13.8223 N   0  0  0  0  0  0  0  0  0  0  0  0
  -27.4262   -5.5881   12.2570 P   0  0  0  0  0  5  0  0  0  0  0  0
  -26.6034   -6.5315   11.3988 O   0  0  0  0  0  0  0  0  0  0  0  0
  -27.5175   -4.0709   11.5504 O   0  0  0  0  0  0  0  0  0  0  0  0
  -28.9765   -6.2414   12.5391 O   0  0  0  0  0  0  0  0  0  0  0  0
  -30.7952   -1.4553   17.2170 C   0  0  1  0  0  0  0  0  0  0  0  0
  -31.1832   -0.1695   17.5693 O   0  0  0  0  0  0  0  0  0  0  0  0
  -31.2035   -2.4416   18.2970 C   0  0  1  0  0  0  0  0  0  0  0  0
  -31.4230   -1.8308   19.5111 O   0  0  0  0  0  0  0  0  0  0  0  0
  -18.8748   -9.0644   -8.9252 O   0  0  0  0  0  0  0  0  0  0  0  0
  -17.9463   -8.7375   -8.1429 C   0  0  0  0  0  0  0  0  0  0  0  0
  -18.0488   -8.8090   -6.7358 N   0  0  0  0  0  0  0  0  0  0  0  0
  -17.0777   -8.4658   -5.9678 C   0  0  0  0  0  0  0  0  0  0  0  0
  -15.7726   -7.9692   -6.4316 C   0  0  0  0  0  0  0  0  0  0  0  0
  -15.6859   -7.9019   -7.9088 C   0  0  0  0  0  0  0  0  0  0  0  0
  -14.6380   -7.4939   -8.6711 N   0  0  0  0  0  0  0  0  0  0  0  0
  -14.9864   -7.5929   -9.9655 C   0  0  0  0  0  0  0  0  0  0  0  0
  -14.1535   -7.2557  -11.1157 C   0  0  0  0  0  0  0  0  0  0  0  0
  -12.7806   -7.1589  -11.0341 C   0  0  0  0  0  0  0  0  0  0  0  0
  -12.0111   -6.8382  -12.1363 C   0  0  0  0  0  0  0  0  0  0  0  0
  -12.5831   -6.6005  -13.3689 C   0  0  0  0  0  0  0  0  0  0  0  0
  -11.4134   -6.1099  -15.0582 I   0  0  0  0  0  0  0  0  0  0  0  0
  -13.9569   -6.6980  -13.4483 C   0  0  0  0  0  0  0  0  0  0  0  0
  -14.7276   -7.0185  -12.3471 C   0  0  0  0  0  0  0  0  0  0  0  0
  -16.2776   -8.0734   -9.9645 C   0  0  0  0  0  0  0  0  0  0  0  0
  -16.7136   -8.2656   -8.6963 N   0  0  0  0  0  0  0  0  0  0  0  0
  -18.8913   -9.1011   -8.8773 O   0  0  0  0  0  0  0  0  0  0  0  0
  -17.9602   -8.8052   -8.0784 C   0  0  0  0  0  0  0  0  0  0  0  0
  -18.0656   -8.9368   -6.6781 N   0  0  0  0  0  0  0  0  0  0  0  0
  -17.1276   -8.6390   -5.8681 C   0  0  0  0  0  0  0  0  0  0  0  0
  -15.8222   -8.1240   -6.2718 C   0  0  0  0  0  0  0  0  0  0  0  0
  -15.7168   -7.9881   -7.7375 C   0  0  0  0  0  0  0  0  0  0  0  0
  -14.6730   -7.5460   -8.5212 N   0  0  0  0  0  0  0  0  0  0  0  0
  -15.0215   -7.5915   -9.8116 C   0  0  0  0  0  0  0  0  0  0  0  0
  -14.2256   -7.2177  -10.9678 C   0  0  0  0  0  0  0  0  0  0  0  0
  -12.8377   -7.1605  -10.9049 C   0  0  0  0  0  0  0  0  0  0  0  0
  -12.0939   -6.8010  -12.0209 C   0  0  0  0  0  0  0  0  0  0  0  0
  -12.6972   -6.4901  -13.2217 C   0  0  0  0  0  0  0  0  0  0  0  0
  -11.5449   -5.9503  -14.8907 I   0  0  0  0  0  0  0  0  0  0  0  0
  -14.0789   -6.5440  -13.2951 C   0  0  0  0  0  0  0  0  0  0  0  0
  -14.7856   -6.8993  -12.1868 C   0  0  0  0  0  0  0  0  0  0  0  0
  -16.3070   -8.0714   -9.8300 C   0  0  0  0  0  0  0  0  0  0  0  0
  -16.7123   -8.3063   -8.5639 N   0  0  0  0  0  0  0  0  0  0  0  0
  -28.5440  -13.1080   17.5437 O   0  0  0  0  0  0  0  0  0  0  0  0
  -29.7201  -13.2161   16.6315 S   0  0  0  0  0  6  0  0  0  0  0  0
  -30.0382  -11.8915   16.0156 O   0  0  0  0  0  0  0  0  0  0  0  0
  -29.3594  -14.3387   15.4431 O   0  0  0  0  0  1  0  0  0  0  0  0
  -31.0690  -13.7124   17.4929 O   0  0  0  0  0  1  0  0  0  0  0  0
  -22.9655  -19.4102    4.5285 O   0  0  0  0  0  0  0  0  0  0  0  0
  -22.0645  -20.6053    4.6264 S   0  0  0  0  0  6  0  0  0  0  0  0
  -22.4978  -21.4494    5.7940 O   0  0  0  0  0  0  0  0  0  0  0  0
  -22.1579  -21.4755    3.1849 O   0  0  0  0  0  1  0  0  0  0  0  0
  -20.4664  -20.1848    4.8616 O   0  0  0  0  0  1  0  0  0  0  0  0
  -13.9264   -6.5735  -11.5149 Mg  0  0  0  0  0 15  0  0  0  0  0  0
  -13.9208   -6.3361  -11.6881 Mg  0  0  0  0  0 15  0  0  0  0  0  0
  1  2  1  0
  2  3  2  0
  3  4  1  0
  4  5  2  0
  5  6  1  0
  6  7  2  0
  7  8  1  0
  8  9  2  0
  9 10  1  0
 11 10  1  1
 11 12  1  0
 12 13  1  0
 13 14  1  6
 14 15  1  0
 15 16  1  0
 16 17  2  0
 16 18  1  6
 16 19  1  0
 19 20  1  0
 20 21  2  0
 20 22  1  6
 20 23  1  0
 23 24  1  0
 24 25  2  0
 24 26  1  0
 24 27  1  0
 13 28  1  0
 28 29  1  1
 28 30  1  0
 30 31  1  1
  7  2  1  0
 30 11  1  0
 10  6  1  0
 32 33  2  0
 33 34  1  0
 34 35  2  0
 35 36  1  0
 36 37  1  0
 37 38  2  0
 38 39  1  0
 39 40  1  0
 40 41  2  0
 41 42  1  0
 42 43  2  0
 43 44  1  0
 43 45  1  0
 45 46  2  0
 39 47  2  0
 47 48  1  0
 48 33  1  0
 48 37  1  0
 46 40  1  0
 49 50  2  0
 50 51  1  0
 51 52  2  0
 52 53  1  0
 53 54  1  0
 54 55  2  0
 55 56  1  0
 56 57  1  0
 57 58  2  0
 58 59  1  0
 59 60  2  0
 60 61  1  0
 60 62  1  0
 62 63  2  0
 56 64  2  0
 64 65  1  0
 65 50  1  0
 65 54  1  0
 63 57  1  0
 66 67  2  0
 67 68  2  0
 67 69  1  0
 67 70  1  0
 71 72  2  0
 72 73  2  0
 72 74  1  0
 72 75  1  0
M  CHG  6  69  -1  70  -1  74  -1  75  -1  76   2  77   2
M  END
$$$$
