1.C
     RDKit          3D

 19 20  0  0  0  0  0  0  0  0999 V2000
  -22.6280  -19.3970   -9.0690 C   0  0  2  0  0  0  0  0  0  0  0  0
  -23.2270  -20.3340  -10.1200 C   0  0  0  0  0  0  0  0  0  0  0  0
  -24.5760  -20.2770  -10.4650 C   0  0  0  0  0  0  0  0  0  0  0  0
  -25.1310  -21.1630  -11.3940 C   0  0  0  0  0  0  0  0  0  0  0  0
  -26.6260  -21.1040  -11.7800 C   0  0  2  0  0  0  0  0  0  0  0  0
  -24.2990  -22.0820  -11.9980 C   0  0  0  0  0  0  0  0  0  0  0  0
  -22.9530  -22.1320  -11.6440 C   0  0  0  0  0  0  0  0  0  0  0  0
  -22.0520  -23.1460  -12.2900 C   0  0  0  0  0  0  0  0  0  0  0  0
  -22.4120  -21.2760  -10.7110 C   0  0  0  0  0  0  0  0  0  0  0  0
  -21.5450  -19.9770   -8.4940 F   0  0  0  0  0  0  0  0  0  0  0  0
  -23.5300  -19.1910   -8.1000 F   0  0  0  0  0  0  0  0  0  0  0  0
  -22.2600  -18.2210   -9.5860 F   0  0  0  0  0  0  0  0  0  0  0  0
  -26.8420  -20.1590  -12.7100 F   0  0  0  0  0  0  0  0  0  0  0  0
  -27.4340  -20.7830  -10.7600 F   0  0  0  0  0  0  0  0  0  0  0  0
  -27.0820  -22.2920  -12.1750 F   0  0  0  0  0  0  0  0  0  0  0  0
  -22.1420  -23.5850  -13.5780 N   0  0  0  0  0  0  0  0  0  0  0  0
  -21.1600  -24.4850  -13.7180 N   0  0  0  0  0  0  0  0  0  0  0  0
  -20.4940  -24.6020  -12.5890 N   0  0  0  0  0  0  0  0  0  0  0  0
  -21.0160  -23.7810  -11.6750 N   0  0  0  0  0  0  0  0  0  0  0  0
  1  2  1  0
  1 10  1  1
  1 11  1  0
  1 12  1  0
  2  3  2  0
  2  9  1  0
  3  4  1  0
  4  5  1  0
  4  6  2  0
  5 13  1  6
  5 14  1  0
  5 15  1  0
  6  7  1  0
  7  8  1  0
  7  9  2  0
  8 16  2  0
  8 19  1  0
 16 17  1  0
 17 18  1  0
 18 19  2  0
M  END
$$$$
