
     RDKit          3D

  8  8  0  0  0  0  0  0  0  0999 V2000
   41.9395   28.4059   17.7163 C   0  0  0  0  0  0  0  0  0  0  0  0
   41.2146   29.6074   18.2797 C   0  0  0  0  0  0  0  0  0  0  0  0
   41.9299   30.2529   19.4113 C   0  0  0  0  0  0  0  0  0  0  0  0
   42.0002   31.7134   18.9429 C   0  0  0  0  0  0  0  0  0  0  0  0
   40.8485   31.7202   17.9504 C   0  0  0  0  0  0  0  0  0  0  0  0
   43.0632   28.1548   18.4704 O   0  0  0  0  0  0  0  0  0  0  0  0
   42.2051   28.5597   16.3558 O   0  0  0  0  0  0  0  0  0  0  0  0
   41.0961   30.5373   17.2537 O   0  0  0  0  0  0  0  0  0  0  0  0
  2  1  1  0
  3  2  1  0
  4  3  1  0
  5  4  1  0
  6  1  1  0
  7  1  1  0
  8  5  1  0
  8  2  1  0
M  END
$$$$
